test/data/distribution/ut_trans_2w_yy_138kv.dss
!clear

! Base Frequency
Set DefaultBaseFrequency=60

! New Circuit
New circuit.ut_trans
~ basekv=138 pu=1.00 MVAsc3=200000 MVAsc1=210000

! Substation Transformer
New Transformer.SubXF Phases=3 Windings=2 Xhl=0.01
~ wdg=1 bus=sourcebus conn=wye kv=138   kva=250000   %r=0.0005
~ wdg=2 bus=Substation  conn=wye kv=11  kva=250000   %r=0.0005


! Transformers
New Transformer.TX1 windings=2 phases=3 Buses=[1 2]
~ Conns=[Wye Wye]
~ kVs=[11 4]
~ kVAs=[500 500]
~ %Rs=[1 2]
~ xhl=5
~ %noloadloss=5
~ %imag=11
~ leadlag=lead
~ taps=[1.02 0.97]

! Transmission Lines
New Line.LINE1 Bus1=Substation Bus2=1 phases=3 X1=3 R1=6 normamps=6000 emergamps=6000
New Line.LINE2 Bus1=2 Bus2=3 phases=3 X1=0.3 R1=0.6 normamps=6000 emergamps=6000

! Loads
New Load.LOAD1 Phases=1 Bus1=1.1 kV=6.531 kW=43 kvar=76 vminpu=0.8 vmaxpu=1.2
New Load.LOAD2 Phases=1 Bus1=1.2 kV=6.531 kW=52 kvar=85 vminpu=0.8 vmaxpu=1.2
New Load.LOAD3 Phases=1 Bus1=1.3 kV=6.531 kW=61 kvar=94 vminpu=0.8 vmaxpu=1.2
New Load.LOAD4 Phases=1 Bus1=3.1 kV=2.3 kW=74 kvar=41 vminpu=0.8 vmaxpu=1.2
New Load.LOAD5 Phases=1 Bus1=3.2 kV=2.3 kW=85 kvar=52 vminpu=0.8 vmaxpu=1.2
New Load.LOAD6 Phases=1 Bus1=3.3 kV=2.3 kW=96 kvar=63 vminpu=0.8 vmaxpu=1.2

! Set Voltage Bases
Set voltagebases=[138 11 4]
!Calcvoltagebases
! Solve network
!solve
